[General]
record-eventlog = true 
debug-on-errors = true
sim-time-limit = 2s

**.generator.messageCreationInterval = uniform(0.1ms,0.5ms)
**.scheduler.schedulingCycleDuration = 1ms
**.scheduler.radioChannelCount = 30
**.scheduler.connectionLostSec = 0.4s
**.scheduler.connectionFoundSec = 0.8s