[General]
network = RadioSystem

record-eventlog = false 
debug-on-errors = true
result-dir = results_strict_priority
sim-time-limit = 1s

[Config FourUsers]
RadioSystem.userCount = 4
**.generator.sendIaTime = 10ms

[Config EightUsers]
RadioSystem.userCount = 8
**.generator.sendIaTime = 10ms